*Heading
** Job name: Job-1 Model name: Model-1
** Generated by: Abaqus/CAE 2020
*Preprint, echo=NO, model=NO, history=NO, contact=NO
**
** PARTS
**
*Part, name=Part-1
*End Part
**  
*Part, name=Part-2
*End Part
**  
**
** ASSEMBLY
**
*Assembly, name=Assembly
**  
*Instance, name=Part-1-1, part=Part-1
*Node
      1,           8.,           1.,           3.
      2,           8.,          0.5,           3.
      3,           8.,           0.,           3.
      4,           8.,           1.,          2.5
      5,           8.,          0.5,          2.5
      6,           8.,           0.,          2.5
      7,           8.,           1.,           2.
      8,           8.,          0.5,           2.
      9,           8.,           0.,           2.
     10,           8.,           1.,          1.5
     11,           8.,          0.5,          1.5
     12,           8.,           0.,          1.5
     13,           8.,           1.,           1.
     14,           8.,          0.5,           1.
     15,           8.,           0.,           1.
     16,           8.,           1.,          0.5
     17,           8.,          0.5,          0.5
     18,           8.,           0.,          0.5
     19,           8.,           1.,           0.
     20,           8.,          0.5,           0.
** ... 337 like lines cut
*Element, type=C3D8
  1,  22,  23,  26,  25,   1,   2,   5,   4
  2,  23,  24,  27,  26,   2,   3,   6,   5
  3,  25,  26,  29,  28,   4,   5,   8,   7
  4,  26,  27,  30,  29,   5,   6,   9,   8
  5,  28,  29,  32,  31,   7,   8,  11,  10
  6,  29,  30,  33,  32,   8,   9,  12,  11
  7,  31,  32,  35,  34,  10,  11,  14,  13
  8,  32,  33,  36,  35,  11,  12,  15,  14
  9,  34,  35,  38,  37,  13,  14,  17,  16
 10,  35,  36,  39,  38,  14,  15,  18,  17
 11,  37,  38,  41,  40,  16,  17,  20,  19
 12,  38,  39,  42,  41,  17,  18,  21,  20
 13,  43,  44,  47,  46,  22,  23,  26,  25
 14,  44,  45,  48,  47,  23,  24,  27,  26
 15,  46,  47,  50,  49,  25,  26,  29,  28
 16,  47,  48,  51,  50,  26,  27,  30,  29
 17,  49,  50,  53,  52,  28,  29,  32,  31
 18,  50,  51,  54,  53,  29,  30,  33,  32
 19,  52,  53,  56,  55,  31,  32,  35,  34
 20,  53,  54,  57,  56,  32,  33,  36,  35
** ... 172 like lines cut
*Nset, nset=Set-1, generate
   1,  357,    1
*Elset, elset=Set-1, generate
   1,  192,    1
** Section: Section-2
*Solid Section, elset=Set-1, material=Material-2
,
*End Instance
**  
*Instance, name=Part-2-1, part=Part-2
          0.,          1.5,           0.
*Node
      1,   7.16506338,         1.25,           3.
      2,   7.59807634,           1.,           3.
      3,   9.09807587,   3.59807611,           3.
      4,   8.66506386,   3.84807611,           3.
      5,           5.,         -0.5,           3.
      6,           5.,           0.,           3.
      7,           0.,           0.,           3.
      8,           0.,         -0.5,           3.
      9,   7.38156986,        1.125,           3.
     10,   7.74807644,   1.25980759,           3.
     11,   7.89807606,   1.51961529,           3.
     12,   8.04807663,   1.77942288,           3.
     13,   8.19807625,   2.03923059,           3.
     14,   8.34807587,   2.29903817,           3.
     15,   8.49807644,   2.55884576,           3.
     16,   8.64807606,   2.81865335,           3.
     17,   8.79807663,   3.07846093,           3.
     18,   8.94807625,   3.33826852,           3.
     19,   8.88156986,   3.72307611,           3.
     20,   8.51506329,   3.58826852,           3.
** ... 1234 like lines cut
*Element, type=C3D8
  1,   28,   81,    9,    1,  142,  195,  123,  115
  2,   81,   10,    2,    9,  195,  124,  116,  123
  3,   27,   82,   81,   28,  141,  196,  195,  142
  4,   82,   11,   10,   81,  196,  125,  124,  195
  5,   26,   83,   82,   27,  140,  197,  196,  141
  6,   83,   12,   11,   82,  197,  126,  125,  196
  7,   25,   84,   83,   26,  139,  198,  197,  140
  8,   84,   13,   12,   83,  198,  127,  126,  197
  9,   24,   85,   84,   25,  138,  199,  198,  139
 10,   85,   14,   13,   84,  199,  128,  127,  198
 11,   23,   86,   85,   24,  137,  200,  199,  138
 12,   86,   15,   14,   85,  200,  129,  128,  199
 13,   22,   87,   86,   23,  136,  201,  200,  137
 14,   87,   16,   15,   86,  201,  130,  129,  200
 15,   21,   88,   87,   22,  135,  202,  201,  136
 16,   88,   17,   16,   87,  202,  131,  130,  201
 17,   20,   89,   88,   21,  134,  203,  202,  135
 18,   89,   18,   17,   88,  203,  132,  131,  202
 19,    4,   19,   89,   20,  118,  133,  203,  134
 20,   19,    3,   18,   89,  133,  117,  132,  203
** ... 720 like lines cut
*Nset, nset=Set-1, generate
    1,  1254,     1
*Elset, elset=Set-1, generate
   1,  740,    1
** Section: Section-1
*Solid Section, elset=Set-1, material=Material-1
,
*End Instance
**  
*Nset, nset=Set-3, instance=Part-1-1, generate
   3,  357,    3
*Elset, elset=Set-3, instance=Part-1-1, generate
   2,  192,    2
*Nset, nset=Set-4, instance=Part-2-1
    3,    4,   19,  117,  118,  133,  231,  232,  247,  345,  346,  361,  459,  460,  475,  573
  574,  589,  687,  688,  703,  801,  802,  817,  915,  916,  931, 1029, 1030, 1045, 1143, 1144
 1159,
*Elset, elset=Set-4, instance=Part-2-1
  19,  20,  93,  94, 167, 168, 241, 242, 315, 316, 389, 390, 463, 464, 537, 538
 611, 612, 685, 686
*Nset, nset=surf1, instance=Part-2-1
    5,    8,   47,   48,   49,   50,   51,   52,   53,   54,   55,   56,   57,   58,   59,   60
   61,   62,  119,  122,  161,  162,  163,  164,  165,  166,  167,  168,  169,  170,  171,  172
  173,  174,  175,  176,  233,  236,  275,  276,  277,  278,  279,  280,  281,  282,  283,  284
  285,  286,  287,  288,  289,  290,  347,  350,  389,  390,  391,  392,  393,  394,  395,  396
  397,  398,  399,  400,  401,  402,  403,  404,  461,  464,  503,  504,  505,  506,  507,  508
  509,  510,  511,  512,  513,  514,  515,  516,  517,  518,  575,  578,  617,  618,  619,  620
  621,  622,  623,  624,  625,  626,  627,  628,  629,  630,  631,  632,  689,  692,  731,  732
  733,  734,  735,  736,  737,  738,  739,  740,  741,  742,  743,  744,  745,  746,  803,  806
  845,  846,  847,  848,  849,  850,  851,  852,  853,  854,  855,  856,  857,  858,  859,  860
  917,  920,  959,  960,  961,  962,  963,  964,  965,  966,  967,  968,  969,  970,  971,  972
  973,  974, 1031, 1034, 1073, 1074, 1075, 1076, 1077, 1078, 1079, 1080, 1081, 1082, 1083, 1084
 1085, 1086, 1087, 1088, 1145, 1148, 1187, 1188, 1189, 1190, 1191, 1192, 1193, 1194, 1195, 1196
 1197, 1198, 1199, 1200, 1201, 1202
*Elset, elset=surf1, instance=Part-2-1
  21,  23,  25,  27,  29,  31,  33,  35,  37,  39,  41,  43,  45,  47,  49,  51
  53,  95,  97,  99, 101, 103, 105, 107, 109, 111, 113, 115, 117, 119, 121, 123
 125, 127, 169, 171, 173, 175, 177, 179, 181, 183, 185, 187, 189, 191, 193, 195
 197, 199, 201, 243, 245, 247, 249, 251, 253, 255, 257, 259, 261, 263, 265, 267
 269, 271, 273, 275, 317, 319, 321, 323, 325, 327, 329, 331, 333, 335, 337, 339
 341, 343, 345, 347, 349, 391, 393, 395, 397, 399, 401, 403, 405, 407, 409, 411
 413, 415, 417, 419, 421, 423, 465, 467, 469, 471, 473, 475, 477, 479, 481, 483
 485, 487, 489, 491, 493, 495, 497, 539, 541, 543, 545, 547, 549, 551, 553, 555
 557, 559, 561, 563, 565, 567, 569, 571, 613, 615, 617, 619, 621, 623, 625, 627
 629, 631, 633, 635, 637, 639, 641, 643, 645, 687, 689, 691, 693, 695, 697, 699
 701, 703, 705, 707, 709, 711, 713, 715, 717, 719
*Nset, nset=surf2, instance=Part-1-1, generate
   1,  355,    3
*Elset, elset=surf2, instance=Part-1-1, generate
   1,  191,    2
*Elset, elset=_Surf-1_S6, internal, instance=Part-1-1, generate
   1,  191,    2
*Surface, type=ELEMENT, name=Surf-1
_Surf-1_S6, S6
*Elset, elset=_Surf-2_S6, internal, instance=Part-2-1
  21,  23,  25,  27,  29,  31,  33,  35,  37,  39,  41,  43,  45,  47,  49,  51
  53,  95,  97,  99, 101, 103, 105, 107, 109, 111, 113, 115, 117, 119, 121, 123
 125, 127, 169, 171, 173, 175, 177, 179, 181, 183, 185, 187, 189, 191, 193, 195
 197, 199, 201, 243, 245, 247, 249, 251, 253, 255, 257, 259, 261, 263, 265, 267
 269, 271, 273, 275, 317, 319, 321, 323, 325, 327, 329, 331, 333, 335, 337, 339
 341, 343, 345, 347, 349, 391, 393, 395, 397, 399, 401, 403, 405, 407, 409, 411
 413, 415, 417, 419, 421, 423, 465, 467, 469, 471, 473, 475, 477, 479, 481, 483
 485, 487, 489, 491, 493, 495, 497, 539, 541, 543, 545, 547, 549, 551, 553, 555
 557, 559, 561, 563, 565, 567, 569, 571, 613, 615, 617, 619, 621, 623, 625, 627
 629, 631, 633, 635, 637, 639, 641, 643, 645, 687, 689, 691, 693, 695, 697, 699
 701, 703, 705, 707, 709, 711, 713, 715, 717, 719
*Surface, type=ELEMENT, name=Surf-2
_Surf-2_S6, S6
*Nset, nset="_T-Datum csys-2", internal
Set-4, 
*Transform, nset="_T-Datum csys-2"
0.500000000000001, 0.866025403784438,           0., -0.866025403784438, 0.500000000000001,           0.
*End Assembly
** 
** MATERIALS
** 
*Material, name=Material-1
*User Material, constants=1
0.,
*Material, name=Material-2
*Elastic
 2e+06, 0.3
** 
** INTERACTION PROPERTIES
** 
*Surface Interaction, name=IntProp-1
1.,
*Cohesive Behavior, eligibility=CURRENT CONTACTS
100.,100.,100.
*Damage Initiation, criterion=MAXS
 0.3, 0.3, 0.3
*Damage Evolution, type=ENERGY
 0.1,
** 
** INTERACTIONS
** 
** Interaction: Int-1
*Contact Pair, interaction=IntProp-1, small sliding, type=SURFACE TO SURFACE
Surf-2, Surf-1
** ----------------------------------------------------------------
** 
** STEP: Step-1
** 
*Step, name=Step-1, nlgeom=YES
*Static
0.1, 1., 1e-05, 1.
** 
** BOUNDARY CONDITIONS
** 
** Name: BC-1 Type: Symmetry/Antisymmetry/Encastre
*Boundary
Set-3, ENCASTRE
** Name: BC-2 Type: Displacement/Rotation
*Boundary
Set-4, 1, 1, 1.
Set-4, 2, 2
Set-4, 3, 3
** 
** OUTPUT REQUESTS
** 
*Restart, write, frequency=0
** 
** FIELD OUTPUT: F-Output-1
** 
*Output, field, variable=PRESELECT
** 
** HISTORY OUTPUT: H-Output-1
** 
*Output, history, variable=PRESELECT
*End Step
